/*--------------------------------*- C++ -*----------------------------------*\
  =========                 |
  \      /  F ield         | OpenFOAM: The Open Source CFD Toolbox
   \    /   O peration     | Website:  https://openfoam.org
    \  /    A nd           | Version:  7
     \/     M anipulation  |
\*---------------------------------------------------------------------------*/
FoamFile
{
    version     2.0;
    format      ascii;
    class       volVectorField;
    object      U;
}
// * * * * * * * * * * * * * * * * * * * * * * * * * * * * * * * * * * * * * //

dimensions      [0 1 -1 0 0 0 0];

internalField   uniform (0 0 0);

boundaryField
{
    // inlet//inlet
    // {
	    // type		               pressureInletVelocity;
        // value		           uniform (0 0 0);
    // }
    inlet
    {
    	type                    flowRateInletVelocity;
// https://www.openfoam.com/documentation/guides/latest/api/classFoam_1_1flowRateInletVelocityFvPatchVectorField.html
    	// massFlowRate            constant 6.80E-01;//[kg/s]
        volumetricFlowRate      constant 8.78E-06;//[m3/s] for axisymmetric,
        //6.32E-04 / 72 [m3/s] for whole geometry;
		value                   uniform (0 0 0);
        // extrapolateProfile      false;
    }
    outlet//outlet
    {
        type		            zeroGradient;
    }
    lowerNozzleWall
    {
		type		            noSlip;
    }
    upperNozzleWall
    {
		type		            noSlip;
    }
    back//wedgeFront
    {
        type                    wedge;//wedgeFront
    }
    front//wedgeBack
    {
        type                    wedge;//wedgeBack
    }
}

// ************************************************************************* //
