/*--------------------------------*- C++ -*----------------------------------*\
  =========                 |
  \\      /  F ield         | OpenFOAM: The Open Source CFD Toolbox
   \\    /   O peration     | Website:  https://openfoam.org
    \\  /    A nd           | Version:  6
     \\/     M anipulation  |
\*---------------------------------------------------------------------------*/
FoamFile
{
    version     2.0;
    format      ascii;
    class       dictionary;
    location    "laminar_flow/system";
    object      controlDict;
}
// * * * * * * * * * * * * * * * * * * * * * * * * * * * * * * * * * * * * * //

application	      simpleFoam;

startFrom         startTime;

startTime         0;

stopAt            endTime;

endTime           0.01;

deltaT            8e-8;

writeControl      timeStep;

writeInterval     9.375e4;

purgeWrite        0;

writeFormat       binary;//change to `binary` if weird problem occurs

writePrecision    8;//default 6

writeCompression  off;

timeFormat        general;

timePrecision     8;//default 7

runTimeModifiable true;

// adjustTimeStep  yes;
//
// maxCo           0.2;

functions
  {
	    // #includeFunc	  residuals
        // #includeFunc	  streamlines
  }

// ************************************************************************* //
